207
# this is comment line 
C 53.70958709716797 62.70785140991211 39.19353485107422
C 48.645668029785156 59.326698303222656 41.37099838256836
C 50.85533142089844 59.05560302734375 41.613929748535156
C 52.988685607910156 60.222679138183594 41.59309768676758
C 47.18918228149414 61.14906311035156 40.75243377685547
C 47.77354431152344 59.92905044555664 40.44301223754883
C 48.47986602783203 61.3006706237793 42.78087615966797
C 51.25997543334961 60.85553741455078 43.194725036621094
C 52.97402572631836 64.12759399414062 40.86610794067383
C 47.604087829589844 61.83224105834961 41.889129638671875
C 53.90215301513672 62.086280822753906 40.395179748535156
C 47.91582107543945 63.78099060058594 38.44915008544922
C 46.921051025390625 61.83253479003906 39.52861785888672
C 50.03963088989258 64.97516632080078 38.321041107177734
C 50.945194244384766 65.36759185791016 40.543739318847656
C 51.10870361328125 65.26732635498047 39.14765167236328
C 47.67182540893555 63.891231536865234 40.63246536254883
C 49.30172348022461 62.35940933227539 43.21649932861328
C 50.678096771240234 62.090030670166016 43.433712005615234
C 51.18470001220703 64.26901245117188 42.468902587890625
C 51.199378967285156 59.16436767578125 37.42792892456055
C 49.68943786621094 59.64350509643555 37.43365478515625
C 51.276634216308594 58.7492561340332 38.876163482666016
C 49.9676399230957 58.594688415527344 39.458858489990234
C 51.83671188354492 63.87955856323242 37.52217102050781
C 49.26412582397461 60.874366760253906 36.93392562866211
C 53.62514877319336 60.72457504272461 40.467308044433594
C 48.40963363647461 62.9559211730957 37.42565155029297
C 47.41501998901367 60.988197326660156 38.507747650146484
C 50.480159759521484 64.13892364501953 37.33184051513672
C 52.34291076660156 59.066802978515625 39.72216033935547
C 48.58897399902344 64.90513610839844 40.26457595825195
C 49.668521881103516 65.16944122314453 41.11870574951172
C 51.631378173828125 63.079200744628906 43.084495544433594
C 48.88542175292969 63.51667022705078 42.60249710083008
C 52.232364654541016 60.29005813598633 36.99384689331055
C 51.5948371887207 61.626285552978516 36.641937255859375
C 53.19939041137695 60.686893463134766 38.07666015625
C 52.40559768676758 62.64042282104492 37.162960052490234
C 51.9127082824707 64.83910369873047 41.38644027709961
C 49.05883026123047 59.20793533325195 38.602439880371094
C 53.32069396972656 60.030067443847656 39.33147048950195
C 53.370582580566406 62.08375930786133 38.017791748046875
C 52.133792877197266 59.26878356933594 41.09849166870117
C 52.176856994628906 64.56216430664062 38.68707275390625
C 50.21192932128906 61.82082748413086 36.633907318115234
C 48.1500244140625 61.58364486694336 37.45306396484375
C 49.764713287353516 58.67074966430664 40.791133880615234
C 47.96476364135742 59.86735916137695 39.11647415161133
C 49.83865737915039 64.48749542236328 42.309906005859375
C 49.65079879760742 63.12004089355469 36.91022872924805
C 53.160057067871094 64.00070190429688 39.51283645629883
C 49.003387451171875 60.024681091308594 42.523006439208984
C 50.35939407348633 59.805030822753906 42.72508239746094
C 52.513607025146484 61.038673400878906 42.587669372558594
C 53.46842956542969 62.965999603271484 41.43454360961914
C 47.262821197509766 63.22409439086914 39.48384094238281
C 48.70870590209961 64.81617736816406 38.88077163696289
C 52.74331283569336 62.4278564453125 42.51814651489258
C 47.843082427978516 63.20237350463867 41.789798736572266
C 51.506656646728516 58.006980895996094 36.511600494384766
N 52.38069534301758 58.276187896728516 35.647605895996094
C 52.768943786621094 59.75748825073242 35.64075469970703
H 52.3230094909668 60.246612548828125 34.77095413208008
H 53.86076354980469 59.77896499633789 35.5947265625
C 50.58928680419922 53.924156188964844 37.73521041870117
C 51.843509674072266 54.22749710083008 37.21646499633789
H 52.71579360961914 53.581459045410156 37.2742805480957
C 52.20784378051758 55.5555305480957 36.909053802490234
H 53.212440490722656 55.80523681640625 36.57738494873047
C 51.14738464355469 56.58237075805664 36.8608512878418
C 49.61940002441406 54.89863586425781 37.75851058959961
H 48.65519332885742 54.68899917602539 38.214500427246094
C 49.84613037109375 56.22438049316406 37.27923583984375
H 49.095333099365234 57.0098762512207 37.3087272644043
C 50.328067779541016 52.55615997314453 38.27350997924805
C 51.44587707519531 51.655033111572266 38.396339416503906
C 52.25521469116211 51.0507698059082 37.46924591064453
H 52.276031494140625 51.35884094238281 36.42911148071289
C 53.03440475463867 50.09800338745117 38.07115173339844
H 53.6519889831543 49.3493537902832 37.58603286743164
C 52.81105041503906 50.12457275390625 39.42433547973633
N 51.87690353393555 51.13468933105469 39.58181381225586
H 51.56785583496094 51.47229766845703 40.4832763671875
C 53.323768615722656 49.31903839111328 40.49287414550781
H 53.957603454589844 48.52003860473633 40.11106491088867
C 52.71147537231445 49.00554656982422 41.6939582824707
C 52.995269775390625 47.81026077270508 42.32899475097656
H 53.852684020996094 47.175662994384766 42.130615234375
C 52.13582992553711 47.75189208984375 43.38493347167969
H 51.98849105834961 46.87861251831055 44.01175308227539
C 51.2586555480957 48.859066009521484 43.34742736816406
N 51.625816345214844 49.618812561035156 42.29890441894531
C 50.18354415893555 49.22795486450195 44.2770881652832
C 48.93544387817383 49.61176681518555 43.833011627197266
C 47.71403121948242 48.9737548828125 44.11170959472656
H 47.48843765258789 48.254737854003906 44.89231872558594
C 46.75800323486328 49.38509750366211 43.222782135009766
H 45.68754196166992 49.213096618652344 43.18085861206055
C 47.29904556274414 50.1962890625 42.20999526977539
N 48.586631774902344 50.06827926635742 42.591468811035156
H 49.306785583496094 50.54312515258789 42.06419372558594
C 46.80293655395508 50.843143463134766 41.13331985473633
H 45.723751068115234 50.80723190307617 40.99193572998047
C 47.47748565673828 51.523170471191406 40.00644302368164
C 46.93817138671875 52.03169250488281 38.774715423583984
H 45.91026306152344 51.91335678100586 38.44817352294922
C 47.97724533081055 52.42364501953125 38.03648376464844
H 47.98003005981445 52.84126663208008 37.03507995605469
C 49.06874465942383 52.22676467895508 38.79314422607422
N 48.77620315551758 51.619300842285156 39.92859649658203
C 50.938560485839844 49.07804489135742 48.61054611206055
C 49.685874938964844 49.46296691894531 48.10991287231445
H 48.94485092163086 49.840091705322266 48.81008529663086
C 49.479148864746094 49.4047966003418 46.70909118652344
H 48.53691864013672 49.819862365722656 46.36052703857422
C 50.44099807739258 49.00249481201172 45.79941177368164
C 51.904083251953125 48.634063720703125 47.70240020751953
H 52.880008697509766 48.36924362182617 48.10115432739258
C 51.580604553222656 48.46500778198242 46.332183837890625
H 52.41144561767578 48.20075607299805 45.6829948425293
N 51.14964294433594 49.01720428466797 50.00432586669922
H 51.789066314697266 49.71049118041992 50.36289596557617
C 50.7197380065918 48.01072692871094 50.764305114746094
O 50.010494232177734 47.0894660949707 50.30590057373047
C 50.96223068237305 47.96771240234375 52.27596664428711
C 50.44491195678711 46.97703552246094 53.056949615478516
H 50.064300537109375 46.08686447143555 52.56268310546875
C 50.72941589355469 46.88341522216797 54.45243453979492
C 51.369544982910156 47.89719772338867 55.07967758178711
H 51.40619659423828 47.84580993652344 56.16484451293945
C 51.59546661376953 49.08866500854492 54.337562561035156
H 51.96438980102539 49.98918914794922 54.82183837890625
C 51.52106475830078 49.025245666503906 52.92068862915039
H 51.882484436035156 49.8392448425293 52.297515869140625
C 50.367130279541016 45.63018035888672 55.17425537109375
H 49.83330535888672 44.93177032470703 54.531471252441406
C 50.45691680908203 45.24635314941406 56.431488037109375
H 50.8875617980957 45.85956573486328 57.22170639038086
C 50.116615295410156 43.92174530029297 56.968788146972656
C 50.23333740234375 42.714866638183594 56.106231689453125
H 50.909507751464844 41.94645690917969 56.486759185791016
H 50.47824478149414 42.91212463378906 55.06049346923828
H 49.25004196166992 42.240455627441406 56.08342742919922
C 49.571781158447266 43.804386138916016 58.18916320800781
H 49.38018035888672 44.76239013671875 58.67023849487305
C 49.28926467895508 42.639347076416016 58.89485549926758
H 49.65762710571289 41.689056396484375 58.51121139526367
C 48.56423568725586 42.613033294677734 60.02375793457031
H 48.27943420410156 43.575321197509766 60.446617126464844
C 48.076210021972656 41.4656982421875 60.725467681884766
C 47.79758834838867 41.654605865478516 62.190311431884766
H 46.76482391357422 42.0020866394043 62.26185989379883
H 47.903072357177734 40.664127349853516 62.637847900390625
H 48.47519302368164 42.36378479003906 62.67029571533203
C 47.81490707397461 40.283145904541016 60.12533950805664
H 47.9821891784668 40.315879821777344 59.04976272583008
C 47.14204406738281 39.03169250488281 60.57563400268555
H 46.97114181518555 38.99042510986328 61.65034866333008
C 46.835208892822266 38.012630462646484 59.78160095214844
H 46.99299621582031 37.97904968261719 58.704612731933594
C 46.09945297241211 36.83935546875 60.33869934082031
H 45.83022689819336 36.957847595214844 61.38722229003906
C 45.700469970703125 35.797119140625 59.607879638671875
C 46.03557586669922 35.61237716674805 58.171836853027344
H 47.12467575073242 35.601627349853516 58.093074798583984
H 45.68887710571289 34.648197174072266 57.794185638427734
H 45.560874938964844 36.40679931640625 57.59217071533203
C 44.8248405456543 34.74877166748047 60.225196838378906
H 44.72216033935547 33.87261199951172 59.58666229248047
C 44.44831085205078 34.620418548583984 61.517799377441406
H 44.786155700683594 35.45273971557617 62.13344955444336
C 43.75127029418945 33.50346755981445 62.203983306884766
H 43.49221420288086 32.59282684326172 61.66588592529297
C 43.81088638305664 33.27257537841797 63.490840911865234
C 44.4312858581543 34.3181266784668 64.43669128417969
H 43.96839904785156 35.27234649658203 64.17657470703125
H 44.35384750366211 33.98637771606445 65.47418975830078
H 45.49422836303711 34.321205139160156 64.18648529052734
C 43.3465576171875 32.10295867919922 64.21182250976562
H 43.221805572509766 32.29960632324219 65.275634765625
C 42.89915466308594 30.920879364013672 63.755943298339844
H 42.87056350708008 30.761085510253906 62.679107666015625
C 42.416133880615234 29.7807559967041 64.66219329833984
C 42.93085479736328 29.426231384277344 65.87437438964844
C 43.979610443115234 30.098791122436523 66.65796661376953
H 44.834102630615234 30.326923370361328 66.0174560546875
H 43.798458099365234 31.027040481567383 67.20386505126953
H 44.43210983276367 29.499277114868164 67.45061492919922
C 42.320655822753906 28.319618225097656 66.79240417480469
H 41.862648010253906 28.7989559173584 67.66011810302734
H 43.109046936035156 27.725040435791016 67.25865173339844
C 41.36458969116211 27.38165855407715 66.08124542236328
H 40.672813415527344 26.790674209594727 66.68510437011719
H 41.88574981689453 26.562570571899414 65.581298828125
C 40.515480041503906 28.278600692749023 65.15278625488281
H 39.5914192199707 27.86733055114746 64.74117279052734
H 40.02634811401367 29.027690887451172 65.77894592285156
C 41.276206970214844 28.932729721069336 64.07559967041016
C 41.83517837524414 27.923852920532227 63.09281539916992
H 42.455650329589844 27.171039581298828 63.58346939086914
H 41.14170455932617 27.3282413482666 62.4954833984375
H 42.51900863647461 28.44702911376953 62.4211540222168
C 40.29254913330078 29.730636596679688 63.207374572753906
H 40.763179779052734 30.28533935546875 62.39295196533203
H 39.57783126831055 29.001115798950195 62.82079315185547
H 39.84123611450195 30.53795623779297 63.787899017333984
